Version 4
SHEET 1 1024 680
WIRE 480 -16 352 -16
WIRE 608 -16 560 -16
WIRE 512 16 -64 16
WIRE 512 48 512 16
WIRE -64 64 -64 16
WIRE 224 80 128 80
WIRE 240 80 224 80
WIRE 352 80 352 -16
WIRE 352 80 320 80
WIRE 416 80 352 80
WIRE 608 112 608 -16
WIRE 608 112 560 112
WIRE 128 128 128 80
WIRE 416 144 352 144
WIRE -64 240 -64 144
WIRE 128 240 128 208
WIRE 128 240 -64 240
WIRE 352 240 352 224
WIRE 352 240 128 240
WIRE 512 240 512 176
WIRE 512 240 352 240
WIRE 512 256 512 240
FLAG 512 256 0
FLAG 608 112 out
FLAG 224 80 in
FLAG 128 80 v1
SYMBOL voltage -64 48 R0
SYMATTR InstName V2
SYMATTR Value 5
SYMBOL voltage 128 112 M0
WINDOW 0 -32 56 VBottom 2
WINDOW 3 32 56 VTop 2
WINDOW 123 60 56 VTop 2
WINDOW 39 0 0 Left 0
SYMATTR InstName V1
SYMATTR Value SINE(2.5 0.1 1k)
SYMATTR Value2 AC 1
SYMBOL res 576 -32 R90
WINDOW 0 0 56 VBottom 2
WINDOW 3 32 56 VTop 2
SYMATTR InstName R3
SYMATTR Value 25k
SYMBOL res 336 64 R90
WINDOW 0 0 56 VBottom 2
WINDOW 3 32 56 VTop 2
SYMATTR InstName R4
SYMATTR Value 10k
SYMBOL voltage 352 128 R0
WINDOW 0 17 54 Left 2
WINDOW 123 0 0 Left 0
WINDOW 39 0 0 Left 0
SYMATTR InstName V3
SYMATTR Value 2.8
SYMBOL op8_21_v2 480 112 R0
SYMATTR InstName X1
TEXT -144 312 Left 2 !;include C:/Users/syakilaish/KLayout/salt/PTS06/Technology/tech/models/MinedaPTS06_TT
TEXT -144 336 Left 2 !;op
TEXT -72 -64 Left 2 !.ac dec 10 10 100MEG
TEXT -72 -24 Left 2 !.step param Vbias 1.8 3.2 0.1
TEXT -144 360 Left 2 ;.dc V3 1.8 3.2 0.1
TEXT 216 -96 Left 2 !.step param ccap 0.2p 2p 0.5p
